Version 4
SHEET 1 880 680
WIRE 16 128 -32 128
WIRE 128 128 80 128
WIRE 176 128 128 128
WIRE 320 128 288 128
WIRE 128 144 128 128
FLAG 224 160 0
FLAG 224 96 VDD
FLAG 320 128 V_out
IOPIN 320 128 Out
FLAG 128 224 0
FLAG -112 128 0
FLAG 128 128 V_x
SYMBOL Schmitt_Trigger 192 128 R0
SYMATTR InstName X1
SYMBOL res 112 128 R0
SYMATTR InstName R1
SYMATTR Value 1000
SYMBOL cap 80 112 R90
WINDOW 0 0 32 VBottom 2
WINDOW 3 32 32 VTop 2
SYMATTR InstName C1
SYMATTR Value 470p
SYMBOL voltage -16 128 R90
WINDOW 0 -32 56 VBottom 2
WINDOW 3 -130 -91 VTop 2
WINDOW 123 0 0 Left 0
WINDOW 39 0 0 Left 0
SYMATTR InstName V1
SYMATTR Value PULSE(0 1 2.5u 1p 1p 2.5u 5u)
TEXT -104 -16 Left 2 !VDD VDD 0 DC 1
TEXT -104 208 Left 2 !.tran 15u
