Version 4
SHEET 1 1236 680
WIRE 144 144 144 128
WIRE 64 176 32 176
WIRE 96 176 64 176
WIRE 256 176 208 176
WIRE 336 176 256 176
WIRE 528 176 448 176
WIRE 624 176 528 176
WIRE 768 176 736 176
WIRE 800 176 768 176
WIRE 928 176 912 176
WIRE 976 176 928 176
WIRE 1120 176 1088 176
WIRE 144 224 144 208
WIRE 32 240 32 176
WIRE 32 352 32 320
FLAG 64 176 In
FLAG 256 176 Out
IOPIN 256 176 Out
FLAG 32 352 0
FLAG 144 224 0
FLAG 144 128 VDD
FLAG 528 176 Out2
IOPIN 528 176 Out
FLAG 384 144 VDD
FLAG 384 208 0
FLAG 672 208 0
FLAG 848 208 0
FLAG 1024 208 0
FLAG 1024 144 VDD
FLAG 848 144 VDD
FLAG 672 144 VDD
FLAG 768 176 Out3
IOPIN 768 176 Out
FLAG 928 176 Out4
IOPIN 928 176 Out
FLAG 1120 176 Out5
IOPIN 1120 176 Out
SYMBOL voltage 32 224 R0
WINDOW 123 0 0 Left 0
WINDOW 39 0 0 Left 0
SYMATTR InstName Vin
SYMATTR Value PULSE(0 5 0 1p 1p 10n 20n)
SYMBOL Inverter 112 176 R0
SYMATTR InstName X1
SYMBOL Inverter 352 176 R0
SYMATTR InstName X2
SYMBOL Inverter 640 176 R0
SYMATTR InstName X3
SYMBOL Inverter 816 176 R0
SYMATTR InstName X4
SYMBOL Inverter 992 176 R0
SYMATTR InstName X5
TEXT 16 400 Left 0 !.include cmosedu_models.txt\nVDD VDD 0 DC 5
TEXT 112 360 Left 0 !.tran 100n
