Version 4
SHEET 1 880 680
WIRE 512 32 32 32
WIRE 32 176 32 32
WIRE 160 176 144 176
WIRE 192 176 160 176
WIRE 320 176 304 176
WIRE 352 176 320 176
WIRE 480 176 464 176
WIRE 512 176 512 32
WIRE 512 176 480 176
FLAG 80 208 0
FLAG 240 208 0
FLAG 400 208 0
FLAG 80 144 VDD
FLAG 240 144 VDD
FLAG 400 144 VDD
FLAG 160 176 A
FLAG 320 176 B
FLAG 480 176 C
SYMBOL Inverter 48 176 R0
SYMATTR InstName X1
SYMBOL Inverter 208 176 R0
SYMATTR InstName X2
SYMBOL Inverter 368 176 R0
SYMATTR InstName X3
TEXT 32 -80 Left 2 !VDD VDD 0 DC 3\n.tran 0 0.3n
TEXT 32 -24 Left 2 !.ic v(C) = 0
