Version 4
SHEET 1 880 680
WIRE 112 272 -112 272
WIRE 304 272 208 272
FLAG 128 224 VDD
FLAG 320 224 vdd1
FLAG 160 272 0
FLAG 352 272 0
FLAG -192 272 0
FLAG 400 272 Out
SYMBOL nmos4 208 224 R90
SYMATTR InstName M1
SYMATTR Value N_50n
SYMATTR Value2 l=50n w=1u
SYMBOL nmos4 400 224 R90
SYMATTR InstName M2
SYMATTR Value N_50n
SYMATTR Value2 l=50n w=1u
SYMBOL voltage -96 272 R90
WINDOW 0 -32 56 VBottom 2
WINDOW 3 32 56 VTop 2
WINDOW 123 0 0 Left 0
WINDOW 39 0 0 Left 0
SYMATTR InstName V1
SYMATTR Value PULSE(0 1 5n 1p 1p 5n 10n)
TEXT -120 -32 Left 2 !.include cmosedu_models.txt
TEXT -120 -8 Left 2 !VDD VDD 0 DC 1
TEXT -122 14 Left 2 !.tran 50n
TEXT -120 40 Left 2 !vdd1 vdd1 0 DC 1
