Version 4
SHEET 1 1748 944
WIRE -112 -256 -160 -256
WIRE 64 -256 16 -256
WIRE 432 -256 176 -256
WIRE 784 -256 736 -256
WIRE 960 -256 912 -256
WIRE 1328 -256 1072 -256
WIRE -320 -96 -544 -96
WIRE -160 -96 -160 -256
WIRE -160 -96 -192 -96
WIRE 432 -96 432 -256
WIRE 512 -96 432 -96
WIRE 576 -96 512 -96
WIRE 736 -96 736 -256
WIRE 736 -96 704 -96
WIRE 1328 -96 1328 -256
WIRE 1360 -96 1328 -96
WIRE -496 0 -544 0
WIRE -160 64 -160 -96
WIRE 80 64 -160 64
WIRE 432 64 432 -96
WIRE 432 64 192 64
WIRE 736 64 736 -96
WIRE 976 64 736 64
WIRE 1328 64 1328 -96
WIRE 1328 64 1088 64
WIRE -496 96 -544 96
WIRE -496 192 -544 192
FLAG -624 0 0
FLAG -624 96 0
FLAG -624 192 0
FLAG -496 96 clk
IOPIN -496 96 Out
FLAG -496 192 clk_b
IOPIN -496 192 Out
FLAG -496 0 VDD
FLAG -624 -96 0
FLAG -256 -32 clk
IOPIN -256 -32 In
FLAG -256 -160 clk_b
IOPIN -256 -160 In
FLAG -48 -320 clk
IOPIN -48 -320 In
FLAG -48 -192 clk_b
IOPIN -48 -192 In
FLAG 128 -224 0
FLAG 128 -288 VDD
FLAG 128 96 0
FLAG 128 32 VDD
FLAG 640 -160 clk
IOPIN 640 -160 In
FLAG 640 -32 clk_b
IOPIN 640 -32 In
FLAG 848 -192 clk
IOPIN 848 -192 In
FLAG 848 -320 clk_b
IOPIN 848 -320 In
FLAG 1024 -224 0
FLAG 1024 -288 VDD
FLAG 1024 96 0
FLAG 1024 32 VDD
FLAG 512 -96 Q1_b
FLAG 1360 -96 Q2_b
IOPIN 1360 -96 Out
SYMBOL voltage -528 -96 R90
WINDOW 0 -32 56 Invisible 2
WINDOW 3 31 -51 VTop 2
WINDOW 123 0 0 Left 0
WINDOW 39 0 0 Left 0
SYMATTR InstName V1
SYMATTR Value PULSE(0 1 1n 10p 10p 2n  7n)
SYMBOL voltage -528 0 R90
WINDOW 0 24 16 Invisible 2
WINDOW 3 47 47 VRight 2
WINDOW 123 0 0 Left 0
WINDOW 39 0 0 Left 0
SYMATTR InstName V2
SYMATTR Value 1
SYMBOL voltage -528 96 R90
WINDOW 0 24 16 Invisible 2
WINDOW 3 46 104 VLeft 2
WINDOW 123 0 0 Left 0
WINDOW 39 0 0 Left 0
SYMATTR InstName V3
SYMATTR Value PULSE(0 1 0 10p 10p 2.5n 5n)
SYMBOL voltage -528 192 R90
WINDOW 0 -32 56 Invisible 2
WINDOW 3 32 -52 VTop 2
WINDOW 123 0 0 Left 0
WINDOW 39 0 0 Left 0
SYMATTR InstName V4
SYMATTR Value PULSE(1 0 0 10p 10p 2.5n 5n)
SYMBOL Clock -256 -96 R0
SYMATTR InstName X1
SYMBOL Clock -48 -256 R0
SYMATTR InstName X2
SYMBOL Inverter 160 -256 M0
SYMATTR InstName X3
SYMBOL Inverter 96 64 R0
SYMATTR InstName X4
SYMBOL Clock 640 -96 R0
SYMATTR InstName X5
SYMBOL Clock 848 -256 R0
SYMATTR InstName X6
SYMBOL Inverter 1056 -256 M0
SYMATTR InstName X7
SYMBOL Inverter 992 64 R0
SYMATTR InstName X8
TEXT -632 -336 Left 2 !.tran 50n
TEXT -632 -312 Left 2 !.include cmosedu_models.txt
