Version 4
SHEET 1 880 680
WIRE 160 48 16 48
WIRE 208 48 160 48
WIRE 320 48 272 48
WIRE 160 80 160 48
WIRE 320 128 320 48
WIRE 16 192 16 48
WIRE 32 192 16 192
WIRE 160 192 160 160
WIRE 160 192 144 192
WIRE 192 192 160 192
WIRE 320 192 320 128
WIRE 320 192 304 192
FLAG 80 224 0
FLAG 240 224 0
FLAG 80 160 VDD
FLAG 240 160 VDD
FLAG 320 128 Out
IOPIN 320 128 Out
FLAG 160 192 A
FLAG 160 48 B
SYMBOL Inverter 48 192 R0
SYMATTR InstName X1
SYMBOL Inverter 208 192 R0
SYMATTR InstName X2
SYMBOL res 144 64 R0
SYMATTR InstName R1
SYMATTR Value 20k
SYMBOL cap 272 32 R90
WINDOW 0 0 32 VBottom 2
WINDOW 3 32 32 VTop 2
SYMATTR InstName C1
SYMATTR Value 3.3n
TEXT 64 288 Left 2 !VDD VDD 0 DC 4\n.tran 400u
TEXT 64 344 Left 2 !.ic v(B) = 1 v(Out)=1 v(A)  = 0
